<?xml version="1.0" encoding="UTF-8"?>

<!-- generated on Mon 03 Sep 2018 07:42:33 PM CEST by Netedit Version 0.32.0
<?xml version="1.0" encoding="UTF-8"?>

<configuration xmlns:xsi="http://www.w3.org/2001/XMLSchema-instance" xsi:noNamespaceSchemaLocation="http://sumo.dlr.de/xsd/netconvertConfiguration.xsd">

    <input>
        <sumo-net-file value="MySUMONet3.net.xml"/>
    </input>

    <output>
        <output-file value="/home/parallels/Desktop/TFG/MySUMONet4.net.xml"/>
        <output.street-names value="true"/>
    </output>

    <processing>
        <no-turnarounds value="true"/>
        <offset.disable-normalization value="true"/>
        <lefthand value="false"/>
        <junctions.corner-detail value="0"/>
        <rectangular-lane-cut value="false"/>
        <walkingareas value="false"/>
    </processing>

</configuration>
-->

<net version="0.27" xmlns:xsi="http://www.w3.org/2001/XMLSchema-instance" xsi:noNamespaceSchemaLocation="http://sumo.dlr.de/xsd/net_file.xsd">

    <location netOffset="-423727.73,-4576810.67" convBoundary="0.00,0.20,11562.42,12310.89" origBoundary="2.088131,41.339418,2.225678,41.450903" projParameter="+proj=utm +zone=31 +ellps=WGS84 +datum=WGS84 +units=m +no_defs"/>

    <type id="highway.bridleway" priority="1" numLanes="1" speed="2.78" allow="pedestrian" oneway="1" width="2.00"/>
    <type id="highway.bus_guideway" priority="1" numLanes="1" speed="8.33" allow="bus" oneway="1"/>
    <type id="highway.cycleway" priority="1" numLanes="1" speed="5.56" allow="bicycle" oneway="0" width="1.00"/>
    <type id="highway.footway" priority="1" numLanes="1" speed="2.78" allow="pedestrian" oneway="1" width="2.00"/>
    <type id="highway.ford" priority="1" numLanes="1" speed="2.78" allow="army" oneway="0"/>
    <type id="highway.living_street" priority="3" numLanes="1" speed="2.78" disallow="tram rail_urban rail rail_electric ship" oneway="0"/>
    <type id="highway.motorway" priority="13" numLanes="2" speed="44.44" allow="private emergency authority army vip passenger hov taxi bus coach delivery truck trailer motorcycle evehicle custom1 custom2" oneway="1"/>
    <type id="highway.motorway_link" priority="12" numLanes="1" speed="22.22" allow="private emergency authority army vip passenger hov taxi bus coach delivery truck trailer motorcycle evehicle custom1 custom2" oneway="1"/>
    <type id="highway.path" priority="1" numLanes="1" speed="2.78" allow="bicycle pedestrian" oneway="1" width="2.00"/>
    <type id="highway.pedestrian" priority="1" numLanes="1" speed="2.78" allow="pedestrian" oneway="1" width="2.00"/>
    <type id="highway.primary" priority="9" numLanes="2" speed="27.78" disallow="tram rail_urban rail rail_electric ship" oneway="0"/>
    <type id="highway.primary_link" priority="8" numLanes="1" speed="22.22" disallow="tram rail_urban rail rail_electric ship" oneway="0"/>
    <type id="highway.raceway" priority="14" numLanes="2" speed="83.33" allow="vip" oneway="0"/>
    <type id="highway.residential" priority="4" numLanes="1" speed="13.89" disallow="tram rail_urban rail rail_electric ship" oneway="0"/>
    <type id="highway.secondary" priority="7" numLanes="2" speed="27.78" disallow="tram rail_urban rail rail_electric ship" oneway="0"/>
    <type id="highway.secondary_link" priority="6" numLanes="1" speed="22.22" disallow="tram rail_urban rail rail_electric ship" oneway="0"/>
    <type id="highway.service" priority="2" numLanes="1" speed="5.56" allow="delivery bicycle pedestrian" oneway="0"/>
    <type id="highway.services" priority="1" numLanes="1" speed="8.33" disallow="tram rail_urban rail rail_electric ship" oneway="0"/>
    <type id="highway.stairs" priority="1" numLanes="1" speed="1.39" allow="pedestrian" oneway="1" width="2.00"/>
    <type id="highway.step" priority="1" numLanes="1" speed="1.39" allow="pedestrian" oneway="1" width="2.00"/>
    <type id="highway.steps" priority="1" numLanes="1" speed="1.39" allow="pedestrian" oneway="1" width="2.00"/>
    <type id="highway.tertiary" priority="6" numLanes="1" speed="22.22" disallow="tram rail_urban rail rail_electric ship" oneway="0"/>
    <type id="highway.tertiary_link" priority="5" numLanes="1" speed="22.22" disallow="tram rail_urban rail rail_electric ship" oneway="0"/>
    <type id="highway.track" priority="1" numLanes="1" speed="5.56" disallow="tram rail_urban rail rail_electric ship" oneway="0"/>
    <type id="highway.trunk" priority="11" numLanes="2" speed="27.78" disallow="tram rail_urban rail rail_electric bicycle pedestrian ship" oneway="0"/>
    <type id="highway.trunk_link" priority="10" numLanes="1" speed="22.22" disallow="tram rail_urban rail rail_electric bicycle pedestrian ship" oneway="0"/>
    <type id="highway.unclassified" priority="5" numLanes="1" speed="13.89" disallow="tram rail_urban rail rail_electric ship" oneway="0"/>
    <type id="highway.unsurfaced" priority="1" numLanes="1" speed="8.33" disallow="tram rail_urban rail rail_electric ship" oneway="0"/>
    <type id="railway.light_rail" priority="15" numLanes="1" speed="27.78" allow="rail_urban" oneway="1"/>
    <type id="railway.preserved" priority="15" numLanes="1" speed="27.78" allow="rail" oneway="1"/>
    <type id="railway.rail" priority="15" numLanes="1" speed="83.33" allow="rail rail_electric" oneway="1"/>
    <type id="railway.subway" priority="15" numLanes="1" speed="27.78" allow="rail_urban" oneway="1"/>
    <type id="railway.tram" priority="15" numLanes="1" speed="13.89" allow="tram" oneway="1"/>

    <edge id=":1121616955_0" function="internal">
        <lane id=":1121616955_0_0" index="0" disallow="tram rail_urban rail rail_electric bicycle pedestrian ship" speed="25.00" length="31.25" shape="2196.31,59.75 2186.18,62.41 2177.87,65.47 2171.44,68.29 2166.93,70.22"/>
    </edge>
    <edge id=":1121616955_1" function="internal">
        <lane id=":1121616955_1_0" index="0" disallow="tram rail_urban rail rail_electric bicycle pedestrian ship" speed="27.78" length="31.24" shape="2196.31,59.75 2165.98,66.99"/>
        <lane id=":1121616955_1_1" index="1" disallow="tram rail_urban rail rail_electric bicycle pedestrian ship" speed="27.78" length="31.24" shape="2195.65,56.52 2165.26,63.77"/>
        <lane id=":1121616955_1_2" index="2" disallow="tram rail_urban rail rail_electric bicycle pedestrian ship" speed="27.78" length="31.24" shape="2194.99,53.29 2164.54,60.55"/>
    </edge>
    <edge id=":1121616958_0" function="internal">
        <lane id=":1121616958_0_0" index="0" disallow="tram rail_urban rail rail_electric bicycle pedestrian ship" speed="27.78" length="0.30" shape="2116.84,47.20 2117.15,47.12"/>
        <lane id=":1121616958_0_1" index="1" disallow="tram rail_urban rail rail_electric bicycle pedestrian ship" speed="27.78" length="0.30" shape="2117.66,50.40 2117.96,50.32"/>
        <lane id=":1121616958_0_2" index="2" disallow="tram rail_urban rail rail_electric bicycle pedestrian ship" speed="27.78" length="0.30" shape="2118.49,53.59 2118.77,53.52"/>
        <lane id=":1121616958_0_3" index="3" disallow="tram rail_urban rail rail_electric bicycle pedestrian ship" speed="27.78" length="0.30" shape="2119.31,56.79 2119.58,56.72"/>
    </edge>
    <edge id=":1121616975_0" function="internal">
        <lane id=":1121616975_0_0" index="0" disallow="tram rail_urban rail rail_electric bicycle pedestrian ship" speed="25.00" length="29.25" shape="2191.72,28.31 2219.79,20.10"/>
    </edge>
    <edge id=":1121616975_1" function="internal">
        <lane id=":1121616975_1_0" index="0" disallow="tram rail_urban rail rail_electric bicycle pedestrian ship" speed="27.78" length="30.04" shape="2192.53,31.51 2221.41,23.09"/>
        <lane id=":1121616975_1_1" index="1" disallow="tram rail_urban rail rail_electric bicycle pedestrian ship" speed="27.78" length="30.04" shape="2193.34,34.71 2222.18,26.30"/>
        <lane id=":1121616975_1_2" index="2" disallow="tram rail_urban rail rail_electric bicycle pedestrian ship" speed="27.78" length="30.04" shape="2194.15,37.91 2222.94,29.51"/>
    </edge>
    <edge id=":1121617010_0" function="internal">
        <lane id=":1121617010_0_0" index="0" disallow="tram rail_urban rail rail_electric bicycle pedestrian ship" speed="27.78" length="0.30" shape="2102.33,82.09 2102.02,82.17"/>
        <lane id=":1121617010_0_1" index="1" disallow="tram rail_urban rail rail_electric bicycle pedestrian ship" speed="27.78" length="0.30" shape="2101.56,78.89 2101.26,78.95"/>
        <lane id=":1121617010_0_2" index="2" disallow="tram rail_urban rail rail_electric bicycle pedestrian ship" speed="27.78" length="0.30" shape="2100.78,75.68 2100.51,75.74"/>
    </edge>
    <edge id=":1121617061_0" function="internal">
        <lane id=":1121617061_0_0" index="0" disallow="tram rail_urban rail rail_electric bicycle pedestrian ship" speed="27.78" length="0.36" shape="2250.78,17.00 2251.25,16.91"/>
        <lane id=":1121617061_0_1" index="1" disallow="tram rail_urban rail rail_electric bicycle pedestrian ship" speed="27.78" length="0.36" shape="2251.45,20.23 2251.81,20.16"/>
        <lane id=":1121617061_0_2" index="2" disallow="tram rail_urban rail rail_electric bicycle pedestrian ship" speed="27.78" length="0.36" shape="2252.12,23.46 2252.36,23.41"/>
    </edge>
    <edge id=":1121617086_0" function="internal">
        <lane id=":1121617086_0_0" index="0" disallow="tram rail_urban rail rail_electric bicycle pedestrian ship" speed="27.78" length="0.43" shape="2286.43,42.54 2286.15,42.58"/>
        <lane id=":1121617086_0_1" index="1" disallow="tram rail_urban rail rail_electric bicycle pedestrian ship" speed="27.78" length="0.43" shape="2286.01,39.26 2285.59,39.33"/>
        <lane id=":1121617086_0_2" index="2" disallow="tram rail_urban rail rail_electric bicycle pedestrian ship" speed="27.78" length="0.43" shape="2285.60,35.99 2285.03,36.07"/>
    </edge>
    <edge id=":1121617088_0" function="internal">
        <lane id=":1121617088_0_0" index="0" disallow="tram rail_urban rail rail_electric bicycle pedestrian ship" speed="27.78" length="0.30" shape="2130.20,75.39 2129.93,75.45"/>
        <lane id=":1121617088_0_1" index="1" disallow="tram rail_urban rail rail_electric bicycle pedestrian ship" speed="27.78" length="0.30" shape="2129.45,72.18 2129.15,72.24"/>
        <lane id=":1121617088_0_2" index="2" disallow="tram rail_urban rail rail_electric bicycle pedestrian ship" speed="27.78" length="0.30" shape="2128.69,68.96 2128.38,69.04"/>
    </edge>
    <edge id=":1141503163_0" function="internal">
        <lane id=":1141503163_0_0" index="0" disallow="tram rail_urban rail rail_electric bicycle pedestrian ship" speed="22.22" length="20.58" shape="9380.97,12139.68 9375.32,12141.71 9371.64,12143.61 9368.11,12145.81 9362.90,12148.76"/>
        <lane id=":1141503163_0_1" index="1" disallow="tram rail_urban rail rail_electric bicycle pedestrian ship" speed="22.22" length="20.58" shape="9379.99,12136.53 9374.14,12138.64 9370.29,12140.61 9366.63,12142.86 9361.38,12145.83"/>
    </edge>
    <edge id=":1141503163_2" function="internal">
        <lane id=":1141503163_2_0" index="0" disallow="tram rail_urban rail rail_electric bicycle pedestrian ship" speed="22.22" length="20.63" shape="9379.99,12136.53 9360.14,12142.51"/>
        <lane id=":1141503163_2_1" index="1" disallow="tram rail_urban rail rail_electric bicycle pedestrian ship" speed="22.22" length="20.63" shape="9379.01,12133.38 9359.37,12139.31"/>
    </edge>
    <edge id=":1141503194_0" function="internal">
        <lane id=":1141503194_0_0" index="0" disallow="tram rail_urban rail rail_electric bicycle pedestrian ship" speed="16.67" length="0.10" shape="9512.57,12055.95 9512.50,12055.99"/>
        <lane id=":1141503194_0_1" index="1" disallow="tram rail_urban rail rail_electric bicycle pedestrian ship" speed="16.67" length="0.10" shape="9514.31,12058.75 9514.38,12058.71"/>
    </edge>
    <edge id=":1141503236_0" function="internal">
        <lane id=":1141503236_0_0" index="0" disallow="tram rail_urban rail rail_electric bicycle pedestrian ship" speed="16.67" length="3.01" shape="9560.61,12019.58 9563.68,12019.47"/>
        <lane id=":1141503236_0_1" index="1" disallow="tram rail_urban rail rail_electric bicycle pedestrian ship" speed="16.67" length="3.01" shape="9562.60,12022.21 9563.68,12019.47"/>
    </edge>
    <edge id=":1141503274_0" function="internal">
        <lane id=":1141503274_0_0" index="0" disallow="tram rail_urban rail rail_electric bicycle pedestrian ship" speed="22.22" length="0.25" shape="9159.64,12295.15 9159.31,12295.32"/>
        <lane id=":1141503274_0_1" index="1" disallow="tram rail_urban rail rail_electric bicycle pedestrian ship" speed="22.22" length="0.25" shape="9158.04,12292.27 9157.93,12292.32"/>
    </edge>
    <edge id=":1141503290_0" function="internal">
        <lane id=":1141503290_0_0" index="0" disallow="tram rail_urban rail rail_electric bicycle pedestrian ship" speed="22.22" length="0.24" shape="9247.76,12222.69 9247.67,12222.76"/>
        <lane id=":1141503290_0_1" index="1" disallow="tram rail_urban rail rail_electric bicycle pedestrian ship" speed="22.22" length="0.24" shape="9245.70,12220.11 9245.43,12220.34"/>
    </edge>
    <edge id=":1141503336_0" function="internal">
        <lane id=":1141503336_0_0" index="0" disallow="tram rail_urban rail rail_electric bicycle pedestrian ship" speed="16.67" length="0.30" shape="8963.32,12258.69 8963.12,12258.46"/>
        <lane id=":1141503336_0_1" index="1" disallow="tram rail_urban rail rail_electric bicycle pedestrian ship" speed="16.67" length="0.30" shape="8965.76,12256.46 8965.56,12256.24"/>
        <lane id=":1141503336_0_2" index="2" disallow="tram rail_urban rail rail_electric bicycle pedestrian ship" speed="16.67" length="0.30" shape="8968.20,12254.24 8968.00,12254.02"/>
    </edge>
    <edge id=":1142860648_0" function="internal">
        <lane id=":1142860648_0_0" index="0" disallow="tram rail_urban rail rail_electric bicycle pedestrian ship" speed="16.67" length="0.24" shape="9174.58,11955.31 9174.75,11955.37"/>
        <lane id=":1142860648_0_1" index="1" disallow="tram rail_urban rail rail_electric bicycle pedestrian ship" speed="16.67" length="0.24" shape="9173.40,11958.39 9173.68,11958.49"/>
    </edge>
    <edge id=":1162558788_0" function="internal">
        <lane id=":1162558788_0_0" index="0" disallow="tram rail_urban rail rail_electric bicycle pedestrian ship" speed="16.67" length="15.82" shape="7952.67,11817.70 7955.95,11818.87 7959.04,11820.28 7962.69,11821.62 7967.65,11822.58"/>
    </edge>
    <edge id=":1162558788_1" function="internal">
        <lane id=":1162558788_1_0" index="0" disallow="tram rail_urban rail rail_electric bicycle pedestrian ship" speed="16.67" length="15.58" shape="7952.12,11821.07 7967.65,11822.58"/>
        <lane id=":1162558788_1_1" index="1" disallow="tram rail_urban rail rail_electric bicycle pedestrian ship" speed="16.67" length="15.58" shape="7951.76,11824.35 7967.27,11825.86"/>
        <lane id=":1162558788_1_2" index="2" disallow="tram rail_urban rail rail_electric bicycle pedestrian ship" speed="16.67" length="15.58" shape="7951.40,11827.64 7966.89,11829.14"/>
    </edge>
    <edge id=":1162558801_0" function="internal">
        <lane id=":1162558801_0_0" index="0" disallow="tram rail_urban rail rail_electric bicycle pedestrian ship" speed="19.45" length="21.60" shape="7981.70,11843.04 7974.53,11842.71 7968.82,11843.16 7964.18,11843.92 7960.23,11844.49"/>
    </edge>
    <edge id=":1162558801_1" function="internal">
        <lane id=":1162558801_1_0" index="0" disallow="tram rail_urban rail rail_electric bicycle pedestrian ship" speed="22.22" length="21.55" shape="7981.70,11843.04 7960.28,11841.02"/>
        <lane id=":1162558801_1_1" index="1" disallow="tram rail_urban rail rail_electric bicycle pedestrian ship" speed="22.22" length="21.55" shape="7982.06,11839.76 7960.61,11837.74"/>
        <lane id=":1162558801_1_2" index="2" disallow="tram rail_urban rail rail_electric bicycle pedestrian ship" speed="22.22" length="21.55" shape="7982.43,11836.48 7960.94,11834.46"/>
    </edge>
    <edge id=":1230701452_0" function="internal">
        <lane id=":1230701452_0_0" index="0" disallow="tram rail_urban rail rail_electric bicycle pedestrian ship" speed="18.05" length="32.43" shape="6112.26,11110.04 6101.73,11108.44 6092.48,11107.91 6085.05,11107.86 6079.97,11107.70"/>
    </edge>
    <edge id=":1230701452_1" function="internal">
        <lane id=":1230701452_1_0" index="0" disallow="tram rail_urban rail rail_electric bicycle pedestrian ship" speed="22.22" length="32.51" shape="6112.26,11110.04 6080.32,11104.41"/>
        <lane id=":1230701452_1_1" index="1" disallow="tram rail_urban rail rail_electric bicycle pedestrian ship" speed="22.22" length="32.51" shape="6112.95,11106.82 6080.93,11101.17"/>
        <lane id=":1230701452_1_2" index="2" disallow="tram rail_urban rail rail_electric bicycle pedestrian ship" speed="22.22" length="32.51" shape="6113.64,11103.59 6081.54,11097.93"/>
    </edge>
    <edge id=":1230701490_0" function="internal">
        <lane id=":1230701490_0_0" index="0" disallow="tram rail_urban rail rail_electric bicycle pedestrian ship" speed="20.83" length="17.69" shape="6080.90,11081.69 6084.19,11083.29 6087.57,11085.04 6091.72,11086.74 6097.27,11088.19"/>
    </edge>
    <edge id=":1230701490_1" function="internal">
        <lane id=":1230701490_1_0" index="0" disallow="tram rail_urban rail rail_electric bicycle pedestrian ship" speed="19.44" length="17.64" shape="6079.90,11085.05 6097.27,11088.19"/>
        <lane id=":1230701490_1_1" index="1" disallow="tram rail_urban rail rail_electric bicycle pedestrian ship" speed="19.44" length="17.64" shape="6079.29,11088.29 6096.64,11091.43"/>
        <lane id=":1230701490_1_2" index="2" disallow="tram rail_urban rail rail_electric bicycle pedestrian ship" speed="19.44" length="17.64" shape="6078.68,11091.53 6096.02,11094.67"/>
    </edge>
    <edge id=":1252310926_0" function="internal">
        <lane id=":1252310926_0_0" index="0" disallow="tram rail_urban rail rail_electric bicycle pedestrian ship" speed="19.45" length="23.75" shape="8963.53,11939.39 8970.83,11941.89 8977.16,11942.20 8982.49,11941.49 8986.77,11940.92"/>
    </edge>
    <edge id=":1252310926_1" function="internal">
        <lane id=":1252310926_1_0" index="0" disallow="tram rail_urban rail rail_electric bicycle pedestrian ship" speed="22.22" length="24.00" shape="8963.53,11939.39 8969.81,11942.08 8974.44,11943.04 8979.26,11943.41 8986.14,11944.38"/>
        <lane id=":1252310926_1_1" index="1" disallow="tram rail_urban rail rail_electric bicycle pedestrian ship" speed="22.22" length="24.00" shape="8962.02,11942.33 8968.42,11945.09 8973.13,11946.10 8978.03,11946.52 8985.04,11947.53"/>
        <lane id=":1252310926_1_2" index="2" disallow="tram rail_urban rail rail_electric bicycle pedestrian ship" speed="22.22" length="24.00" shape="8960.52,11945.27 8967.03,11948.10 8971.81,11949.16 8976.80,11949.63 8983.93,11950.68"/>
        <lane id=":1252310926_1_3" index="3" disallow="tram rail_urban rail rail_electric bicycle pedestrian ship" speed="22.22" length="24.00" shape="8959.02,11948.20 8965.64,11951.10 8970.50,11952.23 8975.57,11952.74 8982.83,11953.82"/>
    </edge>
    <edge id=":1279276755_0" function="internal">
        <lane id=":1279276755_0_0" index="0" disallow="tram rail_urban rail rail_electric bicycle pedestrian ship" speed="18.05" length="13.81" shape="3011.47,7696.05 3009.87,7693.16 3008.50,7690.60 3006.83,7687.81 3004.35,7684.23"/>
    </edge>
    <edge id=":1279276755_1" function="internal">
        <lane id=":1279276755_1_0" index="0" disallow="tram rail_urban rail rail_electric bicycle pedestrian ship" speed="22.22" length="13.87" shape="3014.28,7694.09 3011.44,7691.06 3009.21,7689.24 3007.03,7687.39 3004.35,7684.23"/>
        <lane id=":1279276755_1_1" index="1" disallow="tram rail_urban rail rail_electric bicycle pedestrian ship" speed="22.22" length="13.87" shape="3016.83,7692.00 3014.03,7689.01 3011.82,7687.22 3009.66,7685.39 3007.01,7682.27"/>
        <lane id=":1279276755_1_2" index="2" disallow="tram rail_urban rail rail_electric bicycle pedestrian ship" speed="22.22" length="13.87" shape="3019.39,7689.92 3016.62,7686.96 3014.43,7685.19 3012.28,7683.39 3009.66,7680.31"/>
    </edge>
    <edge id=":1291715885_0" function="internal">
        <lane id=":1291715885_0_0" index="0" disallow="tram rail_urban rail rail_electric bicycle pedestrian ship" speed="22.22" length="18.13" shape="5255.09,10819.37 5240.89,10808.09"/>
    </edge>
    <edge id=":1291715885_1" function="internal">
        <lane id=":1291715885_1_0" index="0" disallow="tram rail_urban rail rail_electric bicycle pedestrian ship" speed="22.22" length="18.99" shape="5257.42,10816.98 5252.55,10814.25 5248.93,10812.84 5245.42,10811.28 5240.89,10808.09"/>
        <lane id=":1291715885_1_1" index="1" disallow="tram rail_urban rail rail_electric bicycle pedestrian ship" speed="22.22" length="18.99" shape="5259.65,10814.50 5254.75,10811.75 5251.10,10810.33 5247.56,10808.76 5242.99,10805.55"/>
        <lane id=":1291715885_1_2" index="2" disallow="tram rail_urban rail rail_electric bicycle pedestrian ship" speed="22.22" length="18.99" shape="5261.89,10812.02 5256.94,10809.25 5253.26,10807.82 5249.70,10806.24 5245.09,10803.01"/>
    </edge>
    <edge id=":1295278485_0" function="internal">
        <lane id=":1295278485_0_0" index="0" disallow="tram rail_urban rail rail_electric bicycle pedestrian ship" speed="22.22" length="0.31" shape="4608.62,9439.20 4608.79,9439.57"/>
        <lane id=":1295278485_0_1" index="1" disallow="tram rail_urban rail rail_electric bicycle pedestrian ship" speed="22.22" length="0.31" shape="4605.63,9440.60 4605.76,9440.88"/>
        <lane id=":1295278485_0_2" index="2" disallow="tram rail_urban rail rail_electric bicycle pedestrian ship" speed="22.22" length="0.31" shape="4602.65,9442.00 4602.74,9442.20"/>
    </edge>
    <edge id=":1295283771_0" function="internal">
        <lane id=":1295283771_0_0" index="0" disallow="tram rail_urban rail rail_electric bicycle pedestrian ship" speed="22.22" length="22.91" shape="4598.28,9473.99 4597.62,9469.93 4596.81,9465.00 4595.32,9459.04 4592.58,9451.89"/>
    </edge>
    <edge id=":1295283771_1" function="internal">
        <lane id=":1295283771_1_0" index="0" disallow="tram rail_urban rail rail_electric bicycle pedestrian ship" speed="22.22" length="22.84" shape="4601.59,9472.84 4592.58,9451.89"/>
        <lane id=":1295283771_1_1" index="1" disallow="tram rail_urban rail rail_electric bicycle pedestrian ship" speed="22.22" length="22.84" shape="4604.61,9471.51 4595.59,9450.52"/>
        <lane id=":1295283771_1_2" index="2" disallow="tram rail_urban rail rail_electric bicycle pedestrian ship" speed="22.22" length="22.84" shape="4607.63,9470.18 4598.59,9449.16"/>
    </edge>
    <edge id=":1297818714_0" function="internal">
        <lane id=":1297818714_0_0" index="0" disallow="tram rail_urban rail rail_electric bicycle pedestrian ship" speed="22.22" length="13.38" shape="2170.65,6686.51 2171.66,6690.46 2173.19,6693.12 2175.06,6695.34 2177.07,6698.00"/>
    </edge>
    <edge id=":1297818714_1" function="internal">
        <lane id=":1297818714_1_0" index="0" disallow="tram rail_urban rail rail_electric bicycle pedestrian ship" speed="22.22" length="13.44" shape="2170.65,6686.51 2171.31,6690.37 2171.99,6692.98 2172.75,6695.56 2173.65,6699.38"/>
        <lane id=":1297818714_1_1" index="1" disallow="tram rail_urban rail rail_electric bicycle pedestrian ship" speed="22.22" length="13.44" shape="2167.38,6686.97 2168.05,6690.89 2168.74,6693.54 2169.50,6696.17 2170.41,6700.05"/>
        <lane id=":1297818714_1_2" index="2" disallow="tram rail_urban rail rail_electric bicycle pedestrian ship" speed="22.22" length="13.44" shape="2164.11,6687.42 2164.79,6691.41 2165.48,6694.10 2166.26,6696.77 2167.18,6700.71"/>
    </edge>
    <edge id=":1306211538_0" function="internal">
        <lane id=":1306211538_0_0" index="0" disallow="tram rail_urban rail rail_electric bicycle pedestrian ship" speed="22.22" length="0.29" shape="4477.19,9166.05 4477.07,9165.74"/>
        <lane id=":1306211538_0_1" index="1" disallow="tram rail_urban rail rail_electric bicycle pedestrian ship" speed="22.22" length="0.29" shape="4480.28,9164.91 4480.18,9164.63"/>
        <lane id=":1306211538_0_2" index="2" disallow="tram rail_urban rail rail_electric bicycle pedestrian ship" speed="22.22" length="0.29" shape="4483.37,9163.76 4483.29,9163.53"/>
    </edge>
    <edge id=":1306211565_0" function="internal">
        <lane id=":1306211565_0_0" index="0" disallow="tram rail_urban rail rail_electric bicycle pedestrian ship" speed="22.22" length="0.30" shape="4479.61,9121.90 4479.72,9122.21"/>
        <lane id=":1306211565_0_1" index="1" disallow="tram rail_urban rail rail_electric bicycle pedestrian ship" speed="22.22" length="0.30" shape="4476.50,9123.01 4476.60,9123.29"/>
        <lane id=":1306211565_0_2" index="2" disallow="tram rail_urban rail rail_electric bicycle pedestrian ship" speed="22.22" length="0.30" shape="4473.39,9124.12 4473.48,9124.37"/>
    </edge>
    <edge id=":1401840772_0" function="internal">
        <lane id=":1401840772_0_0" index="0" disallow="tram rail_urban rail rail_electric bicycle pedestrian ship" speed="22.22" length="58.04" shape="8486.90,4839.65 8538.28,4866.64"/>
    </edge>
    <edge id=":1401840772_1" function="internal">
        <lane id=":1401840772_1_0" index="0" disallow="tram rail_urban rail rail_electric bicycle pedestrian ship" speed="22.22" length="58.05" shape="8486.90,4839.65 8536.68,4869.51"/>
        <lane id=":1401840772_1_1" index="1" disallow="tram rail_urban rail rail_electric bicycle pedestrian ship" speed="22.22" length="58.05" shape="8485.20,4842.48 8534.98,4872.34"/>
    </edge>
    <edge id=":1401840803_0" function="internal">
        <lane id=":1401840803_0_0" index="0" disallow="tram rail_urban rail rail_electric bicycle pedestrian ship" speed="22.22" length="20.69" shape="8835.99,5073.60 8838.37,5076.76 8841.04,5080.45 8844.54,5084.64 8849.40,5089.29"/>
    </edge>
    <edge id=":1401840803_1" function="internal">
        <lane id=":1401840803_1_0" index="0" disallow="tram rail_urban rail rail_electric bicycle pedestrian ship" speed="22.22" length="20.65" shape="8833.54,5076.04 8849.40,5089.29"/>
        <lane id=":1401840803_1_1" index="1" disallow="tram rail_urban rail rail_electric bicycle pedestrian ship" speed="22.22" length="20.65" shape="8831.42,5078.56 8847.25,5091.80"/>
    </edge>
    <edge id=":1401857361_0" function="internal">
        <lane id=":1401857361_0_0" index="0" disallow="tram rail_urban rail rail_electric bicycle pedestrian ship" speed="22.22" length="43.04" shape="8693.24,4985.86 8658.08,4961.05"/>
    </edge>
    <edge id=":1401857361_1" function="internal">
        <lane id=":1401857361_1_0" index="0" disallow="tram rail_urban rail rail_electric bicycle pedestrian ship" speed="22.22" length="43.06" shape="8695.07,4983.08 8658.08,4961.05"/>
        <lane id=":1401857361_1_1" index="1" disallow="tram rail_urban rail rail_electric bicycle pedestrian ship" speed="22.22" length="43.06" shape="8696.80,4980.27 8659.81,4958.24"/>
    </edge>
    <edge id=":1401857392_0" function="internal">
        <lane id=":1401857392_0_0" index="0" disallow="tram rail_urban rail rail_electric bicycle pedestrian ship" speed="22.22" length="22.85" shape="8943.33,5199.83 8938.00,5195.20 8932.93,5191.63 8928.42,5188.84 8924.80,5186.54"/>
    </edge>
    <edge id=":1401857392_1" function="internal">
        <lane id=":1401857392_1_0" index="0" disallow="tram rail_urban rail rail_electric bicycle pedestrian ship" speed="22.22" length="22.82" shape="8943.33,5199.83 8926.99,5183.89"/>
        <lane id=":1401857392_1_1" index="1" disallow="tram rail_urban rail rail_electric bicycle pedestrian ship" speed="22.22" length="22.82" shape="8945.64,5197.47 8929.30,5181.53"/>
    </edge>
    <edge id=":1404313364_0" function="internal">
        <lane id=":1404313364_0_0" index="0" disallow="tram rail_urban rail rail_electric bicycle pedestrian ship" speed="22.22" length="0.27" shape="6981.03,2850.68 6981.12,2850.89"/>
        <lane id=":1404313364_0_1" index="1" disallow="tram rail_urban rail rail_electric bicycle pedestrian ship" speed="22.22" length="0.27" shape="6978.02,2852.05 6978.15,2852.33"/>
    </edge>
    <edge id=":1482182775_0" function="internal">
        <lane id=":1482182775_0_0" index="0" disallow="tram rail_urban rail rail_electric bicycle pedestrian ship" speed="22.22" length="23.26" shape="2340.42,6993.32 2342.26,6997.02 2344.52,7001.55 2347.72,7006.94 2352.36,7013.20"/>
    </edge>
    <edge id=":1482182775_1" function="internal">
        <lane id=":1482182775_1_0" index="0" disallow="tram rail_urban rail rail_electric bicycle pedestrian ship" speed="22.22" length="23.28" shape="2337.54,6995.25 2352.36,7013.20"/>
        <lane id=":1482182775_1_1" index="1" disallow="tram rail_urban rail rail_electric bicycle pedestrian ship" speed="22.22" length="23.28" shape="2335.00,6997.35 2349.82,7015.30"/>
        <lane id=":1482182775_1_2" index="2" disallow="tram rail_urban rail rail_electric bicycle pedestrian ship" speed="22.22" length="23.28" shape="2332.45,6999.46 2347.27,7017.40"/>
    </edge>
    <edge id=":1767381301_0" function="internal">
        <lane id=":1767381301_0_0" index="0" disallow="tram rail_urban rail rail_electric bicycle pedestrian ship" speed="22.22" length="0.24" shape="10298.52,6698.17 10298.64,6698.30"/>
        <lane id=":1767381301_0_1" index="1" disallow="tram rail_urban rail rail_electric bicycle pedestrian ship" speed="22.22" length="0.24" shape="10296.14,6700.46 10296.35,6700.67"/>
    </edge>
    <edge id=":1771334851_0" function="internal">